/*--------------------------------*- C++ -*----------------------------------*\
| =========                 |                                                 |
| \\      /  F ield         | OpenFOAM: The Open Source CFD Toolbox           |
|  \\    /   O peration     | Version:  4.0                                   |
|   \\  /    A nd           | Web:      www.OpenFOAM.org                      |
|    \\/     M anipulation  |                                                 |
\*---------------------------------------------------------------------------*/
FoamFile
{
    version     2.0;
    format      ascii;
    class       volScalarField;
    location    "0/anodeFluid";
    object      p;
}
// * * * * * * * * * * * * * * * * * * * * * * * * * * * * * * * * * * * * * //

dimensions      [1 -1 -2 0 0 0 0];

internalField   uniform 101325.0;

boundaryField
{
    anodeFluidInlet
    {
        type            zeroGradient;
    }

    anodeFluidOutlet
    {
        type            fixedValue;
        value           $internalField;
    }

    anodeFluidSides
    {
        type            zeroGradient;
    }

    agdlSides
    {
        type            zeroGradient;
    }

    aclSides
    {
        type            zeroGradient;
    }
    
    anodeFluid_to_electrolyte //anode
    {
        type            fixedGradient;
        gradient        uniform 0;
    }

    anodeFluid_to_abp
    {
        type            zeroGradient;
    }
}

// ************************************************************************* //
