/*--------------------------------*- C++ -*----------------------------------*\
| =========                 |                                                 |
| \\      /  F ield         | OpenFOAM: The Open Source CFD Toolbox           |
|  \\    /   O peration     | Version:  4.0                                   |
|   \\  /    A nd           | Web:      www.OpenFOAM.org                      |
|    \\/     M anipulation  |                                                 |
\*---------------------------------------------------------------------------*/
FoamFile
{
    version     2.0;
    format      ascii;
    class       dictionary;
    object      topoSetDict;
}

// * * * * * * * * * * * * * * * * * * * * * * * * * * * * * * * * * * * * * //

actions
(
    // cathode bipolarPlate region cellSet
    {
        name    cbpCells;
        type    cellSet;
        action  new;
        source  boxToCell;
        sourceInfo
        {
            box (0 0 0)(1.5e-03 22e-03 22e-03); // vertex 0 vertex 7
        }
    }
    {
        name    cbpCells;
        type    cellSet;
        action  add;
        source  boxToCell;
        sourceInfo
        {
            box (1.5e-03 0 0)(3e-03 1e-03 22e-03); // rib 1
        }
    }
    {
        name    cbpCells;
        type    cellSet;
        action  add;
        source  boxToCell;
        sourceInfo
        {
            box (1.5e-03 3e-03 0)(3e-03 4e-03 22e-03); // rib 2
        }
    }
    {
        name    cbpCells;
        type    cellSet;
        action  add;
        source  boxToCell;
        sourceInfo
        {
            box (1.5e-03 6e-03 0)(3e-03 7e-03 22e-03); // rib 3
        }
    }
    {
        name    cbpCells;
        type    cellSet;
        action  add;
        source  boxToCell;
        sourceInfo
        {
            box (1.5e-03 9e-03 0)(3e-03 10e-03 22e-03); // rib 4
        }
    }
    {
        name    cbpCells;
        type    cellSet;
        action  add;
        source  boxToCell;
        sourceInfo
        {
            box (1.5e-03 12e-03 0)(3e-03 13e-03 22e-03); // rib 5
        }
    }
    {
        name    cbpCells;
        type    cellSet;
        action  add;
        source  boxToCell;
        sourceInfo
        {
            box (1.5e-03 15e-03 0)(3e-03 16e-03 22e-03); // rib 6
        }
    }
    {
        name    cbpCells;
        type    cellSet;
        action  add;
        source  boxToCell;
        sourceInfo
        {
            box (1.5e-03 18e-03 0)(3e-03 19e-03 22e-03); // rib 7
        }
    }
    {
        name    cbpCells;
        type    cellSet;
        action  add;
        source  boxToCell;
        sourceInfo
        {
            box (1.5e-03 21e-03 0)(3e-03 22e-03 22e-03); // rib 8
        }
    }
    // cathode bipolarPlate region cellZoneSet
    {
        name    cbp;
        type    cellZoneSet;
        action  new;
        source  setToCellZone;
        sourceInfo
        {
            set cbpCells;
        }
    }

    /***************************************************************************/

    // cathodeFluid region cellSet
    {
        name    cgdlCells;
        type    cellSet;
        action  new;
        source  boxToCell;
        sourceInfo
        {
            box (3e-03 0 0)(3.41e-03 22e-03 22e-03); // vertex 8 vertex 15
    }
    }
        {
        name    cclCells;
        type    cellSet;
        action  new;
        source  boxToCell;
        sourceInfo
        {
            box (3.41e-03 0 0)(3.4137e-03 22e-03 22e-03); // vertex 12 vertex 19
        }
    }
    {
        name    cgfcCells;
        type    cellSet;
        action  new;
        source  boxToCell;
        sourceInfo
        {
            box (1.5e-03 1e-03 0)(3e-03 3e-03 22e-03); // channel 1
        }
    }
    {
        name    cgfcCells;
        type    cellSet;
        action  add;
        source  boxToCell;
        sourceInfo
        {
            box (1.5e-03 4e-03 0)(3e-03 6e-03 22e-03); // channel 2
        }
    }
    {
        name    cgfcCells;
        type    cellSet;
        action  add;
        source  boxToCell;
        sourceInfo
        {
            box (1.5e-03 7e-03 0)(3e-03 9e-03 22e-03); // channel 3
        }
    }
    {
        name    cgfcCells;
        type    cellSet;
        action  add;
        source  boxToCell;
        sourceInfo
        {
            box (1.5e-03 10e-03 0)(3e-03 12e-03 22e-03); // channel 4
        }
    }
    {
        name    cgfcCells;
        type    cellSet;
        action  add;
        source  boxToCell;
        sourceInfo
        {
            box (1.5e-03 13e-03 0)(3e-03 15e-03 22e-03); // channel 5
        }
    }
    {
        name    cgfcCells;
        type    cellSet;
        action  add;
        source  boxToCell;
        sourceInfo
        {
            box (1.5e-03 16e-03 0)(3e-03 18e-03 22e-03); // channel 6
        }
    }
    {
        name    cgfcCells;
        type    cellSet;
        action  add;
        source  boxToCell;
        sourceInfo
        {
            box (1.5e-03 19e-03 0)(3e-03 21e-03 22e-03); // channel 7
        }
    }
    // cathode fluid region cellZoneSet
    {
        name    cathodeFluid;
        type    cellZoneSet;
        action  new;
        source  setToCellZone;
        sourceInfo
        {
            set cgdlCells;
        }
    }
    {
        name    cathodeFluid;
        type    cellZoneSet;
        action  add;
        source  setToCellZone;
        sourceInfo
        {
            set cclCells;
        }
    }
    {
        name    cathodeFluid;
        type    cellZoneSet;
        action  add;
        source  setToCellZone;
        sourceInfo
        {
            set cgfcCells;
        }
    }

    /***************************************************************************/

    // electrolyte region cellSet
    {
        name    electrolyteCells;
        type    cellSet;
        action  new;
        source  boxToCell;
        sourceInfo
        {
            box (3.4137e-03 0 0)(3.5407e-03 22e-03 22e-03); // vertex 16 vertex 23
        }
    }
    // electrolyte region cellZoneSet
    {
        name    electrolyte;
        type    cellZoneSet;
        action  new;
        source  setToCellZone;
        sourceInfo
        {
            set electrolyteCells;
        }
    }

    /***************************************************************************/
 
   // anode fluid region cellSet
    {
        name    aclCells;
        type    cellSet;
        action  new;
        source  boxToCell;
        sourceInfo
        {
            box (3.5407e-03 0 0)(3.5444e-03 22e-03 22e-03); // vertex 20 vertex 27
        }
    }
    {
        name    agdlCells;
        type    cellSet;
        action  new;
        source  boxToCell;
        sourceInfo
        {
            box (3.5444e-03 0 0)(3.9544e-03 22e-03 22e-03); // vertex 24 vertex 31
        }
    }
    {
        name    agfcCells;
        type    cellSet;
        action  new;
        source  boxToCell;
        sourceInfo
        {
            box (3.9544e-03 1e-03 0)(5.4544e-03 3e-03 22e-03); // channel 1
        }
    }
    {
        name    agfcCells;
        type    cellSet;
        action  add;
        source  boxToCell;
        sourceInfo
        {
            box (3.9544e-03 4e-03 0)(5.4544e-03 6e-03 22e-03); // channel 2
        }
    }
    {
        name    agfcCells;
        type    cellSet;
        action  add;
        source  boxToCell;
        sourceInfo
        {
            box (3.9544e-03 7e-03 0)(5.4544e-03 9e-03 22e-03); // channel 3
        }
    }
    {
        name    agfcCells;
        type    cellSet;
        action  add;
        source  boxToCell;
        sourceInfo
        {
            box (3.9544e-03 10e-03 0)(5.4544e-03 12e-03 22e-03); // channel 4
        }
    }
    {
        name    agfcCells;
        type    cellSet;
        action  add;
        source  boxToCell;
        sourceInfo
        {
            box (3.9544e-03 13e-03 0)(5.4544e-03 15e-03 22e-03); // channel 5
        }
    }
    {
        name    agfcCells;
        type    cellSet;
        action  add;
        source  boxToCell;
        sourceInfo
        {
            box (3.9544e-03 16e-03 0)(5.4544e-03 18e-03 22e-03); // channel 6
        }
    }
    {
        name    agfcCells;
        type    cellSet;
        action  add;
        source  boxToCell;
        sourceInfo
        {
            box (3.9544e-03 19e-03 0)(5.4544e-03 21e-03 22e-03); // channel 7
        }
    }
    // anode fluid region cellZoneSet
    {
        name    anodeFluid;
        type    cellZoneSet;
        action  new;
        source  setToCellZone;
        sourceInfo
        {
            set aclCells;
        }
    }
    {
        name    anodeFluid;
        type    cellZoneSet;
        action  add;
        source  setToCellZone;
        sourceInfo
        {
            set agdlCells;
        }
    }
    {
        name    anodeFluid;
        type    cellZoneSet;
        action  add;
        source  setToCellZone;
        sourceInfo
        {
            set agfcCells;
        }
    }

    /***************************************************************************/

    // anode bipolarPlate region cellSet
    {
        name    abpCells;
        type    cellSet;
        action  new;
        source  boxToCell;
        sourceInfo
        {
            box (5.4544e-03 0 0)(6.9544e-03 22e-03 22e-03); // vertex 32 vertex 39
        }
    }
    {
        name    abpCells;
        type    cellSet;
        action  add;
        source  boxToCell;
        sourceInfo
        {
            box (3.9544e-03 0 0)(5.4544e-03 1e-03 22e-03); // rib 1
        }
    }
    {
        name    abpCells;
        type    cellSet;
        action  add;
        source  boxToCell;
        sourceInfo
        {
            box (3.9544e-03 3e-03 0)(5.4544e-03 4e-03 22e-03); // rib 2
        }
    }
    {
        name    abpCells;
        type    cellSet;
        action  add;
        source  boxToCell;
        sourceInfo
        {
            box (3.9544e-03 6e-03 0)(5.4544e-03 7e-03 22e-03); // rib 3
        }
    }
    {
        name    abpCells;
        type    cellSet;
        action  add;
        source  boxToCell;
        sourceInfo
        {
            box (3.9544e-03 9e-03 0)(5.4544e-03 10e-03 22e-03); // rib 4
        }
    }
    {
        name    abpCells;
        type    cellSet;
        action  add;
        source  boxToCell;
        sourceInfo
        {
            box (3.9544e-03 12e-03 0)(5.4544e-03 13e-03 22e-03); // rib 5
        }
    }
    {
        name    abpCells;
        type    cellSet;
        action  add;
        source  boxToCell;
        sourceInfo
        {
            box (3.9544e-03 15e-03 0)(5.4544e-03 16e-03 22e-03); // rib 6
        }
    }
    {
        name    abpCells;
        type    cellSet;
        action  add;
        source  boxToCell;
        sourceInfo
        {
            box (3.9544e-03 18e-03 0)(5.4544e-03 19e-03 22e-03); // rib 7
        }
    }
    {
        name    abpCells;
        type    cellSet;
        action  add;
        source  boxToCell;
        sourceInfo
        {
            box (3.9544e-03 21e-03 0)(5.4544e-03 22e-03 22e-03); // rib 8
        }
    }
    // anode fluid region cellZoneSet
    {
        name    abp;
        type    cellZoneSet;
        action  new;
        source  setToCellZone;
        sourceInfo
        {
            set abpCells;
        }
    }
);
      
// ************************************************************************* //
